Version 4
SHEET 1 880 680
WIRE 144 96 -96 96
WIRE 288 96 144 96
WIRE -96 128 -96 96
WIRE 144 128 144 96
WIRE 288 128 288 96
WIRE -96 256 -96 208
WIRE 144 256 144 208
WIRE 144 256 -96 256
WIRE 288 256 288 192
WIRE 288 256 144 256
WIRE 288 272 288 256
FLAG 288 96 ts
FLAG 288 272 0
SYMBOL res 128 112 R0
SYMATTR InstName R_inv
SYMATTR Value 188k
SYMBOL res -112 112 R0
SYMATTR InstName R_discharge
SYMATTR Value 1.3k
SYMBOL cap 272 128 R0
SYMATTR InstName C1
SYMATTR Value 200µF
TEXT -112 264 Left 2 !.tran 5s
TEXT 344 80 Left 2 !.ic V(ts)=600
